47

Rh -0.611590 -0.908980 -0.145782
C -1.177226 -1.932577 1.768488
C -2.215072 -2.243160 0.874031
C -1.645721 -2.926063 -0.236270
C 0.039460 -2.495679 1.251799
C -0.267964 -3.147602 0.041256
H 0.973333 -2.555532 1.790389
H 0.400962 -3.766748 -0.537530
H -2.201742 -3.390272 -1.037570
H -3.262628 -2.029425 1.015780
H -1.277374 -1.464682 2.735454
C -4.244073 1.272488 -0.928964
C -3.236987 0.351817 -1.176925
C -1.944269 0.582878 -0.709318
C -1.697848 1.756902 0.019925
C -2.703734 2.683234 0.241868
C -3.980173 2.443602 -0.237293
H -5.241720 1.072021 -1.291802
H -3.467089 -0.536588 -1.752163
H -2.464200 3.572694 0.804956
H -4.768728 3.160113 -0.065476
C -0.343208 1.920319 0.625168
O 0.110471 2.952485 1.087550
N 0.281623 0.732467 0.579751
O 1.570914 0.676724 1.146858
C 1.607254 0.490342 2.479816
O 0.647251 0.219739 3.147004
C 3.019281 0.653926 2.970067
C 0.528641 -0.646187 -1.899316
C -0.659821 0.147396 -2.124243
H -1.362307 -0.273074 -2.837920
H -0.485310 1.202900 -2.297770
C 1.874275 -0.091971 -1.715370
C 2.155015 1.276661 -1.683649
C 2.939466 -0.985222 -1.557072
C 3.444016 1.726486 -1.477862
H 1.364930 2.001364 -1.804147
C 4.226595 -0.532172 -1.350544
H 2.744084 -2.048770 -1.581169
C 4.484099 0.828233 -1.305216
H 3.636650 2.788183 -1.444742
H 5.031983 -1.240774 -1.220797
H 5.489199 1.185699 -1.137234
H 0.540615 -1.633665 -2.372946
H 3.717445 0.356901 2.193070
H 3.174037 1.707870 3.193139
H 3.166947 0.075150 3.876851
