47

Rh 0.061183 -0.080622 0.388552
C -0.604669 0.490291 2.449869
C -0.115357 -0.820754 2.576464
C 1.253712 -0.816766 2.187242
C 0.484079 1.332404 2.040034
C 1.635192 0.526279 1.930280
H 0.455503 2.411333 2.008268
H 2.640606 0.870671 1.741913
H 1.935205 -1.648338 2.282338
H -0.666274 -1.672087 2.944706
H -1.589208 0.840028 2.719261
C -2.064161 -3.808534 0.029592
C -0.954629 -2.975900 0.038669
C -1.077552 -1.645675 -0.354769
C -2.338821 -1.175550 -0.750942
C -3.437907 -2.018724 -0.775505
C -3.299974 -3.340072 -0.386386
H -1.953799 -4.836149 0.344227
H 0.004281 -3.379178 0.340111
H -4.387882 -1.612790 -1.088855
H -4.152118 -4.002167 -0.400495
C -2.458110 0.275944 -1.074384
O -3.412474 0.812864 -1.607544
N -1.321850 0.890181 -0.694126
O -1.277806 2.286795 -0.872394
C -2.005867 2.998197 0.016422
O -2.489167 2.527552 1.007799
C -2.088328 4.432526 -0.422875
C 1.238379 0.036155 -1.351774
C 0.426297 -1.147728 -1.538912
H 0.948064 -2.098047 -1.507219
H -0.256838 -1.082271 -2.379048
H 0.957206 0.908570 -1.943704
C 2.673624 -0.018309 -1.050711
C 3.319442 -1.167190 -0.580195
C 3.447239 1.128553 -1.260739
C 4.675986 -1.160381 -0.322627
H 2.757661 -2.073059 -0.404320
C 4.803847 1.131277 -1.002608
H 2.967292 2.025541 -1.625159
C 5.425503 -0.013398 -0.530663
H 5.155587 -2.057012 0.042502
H 5.380527 2.029099 -1.169713
H 6.485716 -0.012978 -0.327374
H -2.265317 5.072444 0.436239
H -1.180612 4.719158 -0.945207
H -2.927870 4.520406 -1.110195
